Version 4
SHEET 1 1432 920
WIRE 832 -80 784 -80
WIRE 960 -80 896 -80
WIRE 784 0 784 -80
WIRE 816 0 784 0
WIRE 960 0 960 -80
WIRE 960 0 896 0
WIRE 144 16 48 16
WIRE 320 16 224 16
WIRE 464 16 400 16
WIRE -512 48 -512 -16
WIRE -176 96 -176 64
WIRE -176 96 -256 96
WIRE 48 96 48 16
WIRE 240 96 48 96
WIRE -256 112 -256 96
WIRE 48 112 48 96
WIRE 352 112 304 112
WIRE 464 112 464 16
WIRE 464 112 432 112
WIRE 624 112 464 112
WIRE 672 112 624 112
WIRE 784 112 784 0
WIRE 784 112 752 112
WIRE 832 112 784 112
WIRE -176 128 -176 96
WIRE 240 128 176 128
WIRE 464 128 464 112
WIRE 960 128 960 0
WIRE 960 128 896 128
WIRE 624 144 624 112
WIRE 832 144 800 144
WIRE 800 160 800 144
WIRE 960 176 960 128
WIRE -496 192 -512 192
WIRE -496 256 -496 192
WIRE 176 256 176 128
WIRE 464 256 464 208
WIRE 464 256 176 256
WIRE 960 288 960 240
WIRE 464 384 464 336
WIRE 784 432 560 432
WIRE 192 496 144 496
WIRE 432 496 272 496
WIRE 448 496 432 496
WIRE 560 496 560 432
WIRE 560 496 528 496
WIRE 688 496 656 496
WIRE 784 496 784 432
WIRE 784 496 768 496
WIRE 800 496 784 496
WIRE 960 496 960 368
WIRE 960 496 864 496
WIRE 656 608 656 496
WIRE 688 608 656 608
WIRE 784 608 768 608
WIRE 800 608 784 608
WIRE 960 608 960 496
WIRE 960 608 864 608
WIRE 432 640 432 496
WIRE 432 640 400 640
WIRE 144 656 144 496
WIRE 336 656 144 656
WIRE 448 672 400 672
WIRE 784 672 784 608
WIRE 784 672 528 672
WIRE 448 720 448 672
WIRE 960 752 960 608
WIRE 960 752 896 752
WIRE 656 768 656 608
WIRE 832 768 656 768
WIRE 960 784 896 784
WIRE 960 816 960 784
WIRE 448 832 448 800
FLAG 464 384 0
FLAG -176 -16 Vcc+
FLAG 272 80 Vcc+
FLAG -176 208 Vcc-
FLAG 272 144 Vcc-
FLAG -256 112 0
FLAG 48 176 0
FLAG 624 272 0
FLAG -512 -16 Vcc+
FLAG -496 256 0
FLAG 800 160 0
FLAG 864 96 Vcc+
FLAG 864 160 Vcc-
FLAG 864 736 Vcc+
FLAG 864 800 Vcc-
FLAG 368 624 Vcc+
FLAG 368 688 Vcc-
FLAG 448 832 0
FLAG 960 816 0
SYMBOL cap 32 112 R0
SYMATTR InstName C1
SYMATTR Value 100n
SYMBOL res 240 0 R90
WINDOW 0 0 56 VBottom 2
WINDOW 3 32 56 VTop 2
SYMATTR InstName R1
SYMATTR Value 33K
SYMBOL res 416 0 R90
WINDOW 0 0 56 VBottom 2
WINDOW 3 32 56 VTop 2
SYMATTR InstName R2
SYMATTR Value 12K
SYMBOL OpAmps\\UniversalOpAmp2 272 112 R0
WINDOW 3 -57 131 Left 2
WINDOW 0 -60 104 Left 2
SYMATTR Value LM741/NS
SYMATTR InstName LM1
SYMATTR SpiceModel ""
SYMBOL res 448 240 R0
SYMATTR InstName R3
SYMATTR Value 1K
SYMBOL res 448 96 R90
WINDOW 0 0 56 VBottom 2
WINDOW 3 32 56 VTop 2
SYMATTR InstName R4
SYMATTR Value 200
SYMBOL res 448 112 R0
SYMATTR InstName R5
SYMATTR Value 1K
SYMBOL voltage -176 -32 R0
WINDOW 123 0 0 Left 0
WINDOW 39 0 0 Left 0
SYMATTR InstName V1
SYMATTR Value 12
SYMBOL voltage -176 112 R0
WINDOW 123 0 0 Left 0
WINDOW 39 0 0 Left 0
SYMATTR InstName V2
SYMATTR Value 12
SYMBOL diode 640 208 R180
WINDOW 0 24 64 Left 2
WINDOW 3 -118 18 Left 2
SYMATTR InstName D1
SYMATTR Value 1N5235
SYMBOL diode 608 208 R0
WINDOW 3 57 40 Left 2
SYMATTR Value 1N5235
SYMATTR InstName D3
SYMBOL diode -496 112 R180
WINDOW 0 24 64 Left 2
WINDOW 3 -105 69 Left 2
SYMATTR InstName D2
SYMATTR Value 1N5235
SYMBOL res -528 96 R0
SYMATTR InstName R6
SYMATTR Value 3.6K
SYMBOL res 768 96 R90
WINDOW 0 0 56 VBottom 2
WINDOW 3 32 56 VTop 2
SYMATTR InstName R7
SYMATTR Value 39K
SYMBOL OpAmps\\UniversalOpAmp2 864 128 R0
WINDOW 3 -62 133 Left 2
WINDOW 0 -60 104 Left 2
SYMATTR Value LM741/NS
SYMATTR InstName LM2
SYMATTR SpiceModel ""
SYMBOL res 912 -16 R90
WINDOW 0 0 56 VBottom 2
WINDOW 3 32 56 VTop 2
SYMATTR InstName R8
SYMATTR Value 100k
SYMBOL cap 896 -96 R90
WINDOW 0 0 32 VBottom 2
WINDOW 3 32 32 VTop 2
SYMATTR InstName C2
SYMATTR Value 0.47µ
SYMBOL cap 944 176 R0
SYMATTR InstName C3
SYMATTR Value 47µ
SYMBOL res 944 272 R0
SYMATTR InstName R9
SYMATTR Value 1k
SYMBOL diode 800 512 R270
WINDOW 0 32 32 VTop 2
WINDOW 3 0 32 VBottom 2
SYMATTR InstName D4
SYMBOL diode 864 592 R90
WINDOW 0 0 32 VBottom 2
WINDOW 3 32 32 VTop 2
SYMATTR InstName D5
SYMBOL res 784 480 R90
WINDOW 0 0 56 VBottom 2
WINDOW 3 32 56 VTop 2
SYMATTR InstName R10
SYMATTR Value 3.3k
SYMBOL res 784 592 R90
WINDOW 0 0 56 VBottom 2
WINDOW 3 32 56 VTop 2
SYMATTR InstName R11
SYMATTR Value 3.3k
SYMBOL OpAmps\\UniversalOpAmp2 864 768 M0
WINDOW 3 -62 133 Left 2
WINDOW 0 -60 104 Left 2
SYMATTR Value LM741/NS
SYMATTR InstName LM3
SYMATTR SpiceModel ""
SYMBOL OpAmps\\UniversalOpAmp2 368 656 M0
WINDOW 3 -52 -119 Left 2
WINDOW 0 -28 -146 Left 2
SYMATTR Value LM741/NS
SYMATTR InstName LM4
SYMATTR SpiceModel ""
SYMBOL res 544 656 R90
WINDOW 0 0 56 VBottom 2
WINDOW 3 32 56 VTop 2
SYMATTR InstName R12
SYMATTR Value 100k
SYMBOL res 464 816 R180
WINDOW 0 36 76 Left 2
WINDOW 3 36 40 Left 2
SYMATTR InstName R13
SYMATTR Value 100k
SYMBOL res 544 480 R90
WINDOW 0 0 56 VBottom 2
WINDOW 3 32 56 VTop 2
SYMATTR InstName R14
SYMATTR Value 100k
SYMBOL res 288 480 R90
WINDOW 0 0 56 VBottom 2
WINDOW 3 32 56 VTop 2
SYMATTR InstName R15
SYMATTR Value 100k
TEXT 104 -80 Left 2 !.include 741.LIB
TEXT -272 408 Left 2 !.tran 0 100m 0 1u
TEXT -136 -184 Left 2 !.include diodosape.lib
TEXT 320 -184 Left 2 !.model 1N5235 D(Is=1.5n Rs=.5 Cjo=185p nbv=12 bv=6.8 Ibv=10m Vpk=8.2 mfg=CA012111)
TEXT 328 -224 Left 2 !.include LM741.LIB
